<nodes>
<node id="1" x="0.0" y="0.0" />
<node id="2" x="1500.0" y="0.0" />
<node id="3" x="750.0" y="750.0" />
<node id="4" x="750.0" y="-750.0" />
<node id="sem1" x="750.0" y="0.0" type="traffic_light"/>
</nodes>