<configuration>
  <input>
    <net-file value="inter.net.xml"/>
    <route-files value="inter.rou.xml"/>
  </input>
  <time>
    <begin value="0"/>
    <end value="500"/>
    <step-length value="0.1"/>
  </time>
</configuration>